/*--------------------------------*- C++ -*----------------------------------*\
| =========                 |                                                 |
| \\      /  F ield         | OpenFOAM: The Open Source CFD Toolbox           |
|  \\    /   O peration     | Version:  2312                                  |
|   \\  /    A nd           | Website:  www.openfoam.com                      |
|    \\/     M anipulation  |                                                 |
\*---------------------------------------------------------------------------*/
FoamFile
{
    version     2.0;
    format      ascii;
    arch        "LSB;label=32;scalar=64";
    class       extendedFeatureEdgeMesh;
    location    "constant/extendedFeatureEdgeMesh";
    object      Fluid_Participant_Mesh.extendedFeatureEdgeMesh;
}
// * * * * * * * * * * * * * * * * * * * * * * * * * * * * * * * * * * * * * //

// points

178
(
(-0.5 0 0)
(-0.5 0 0.4)
(-0.5 0.5 0)
(-0.5 0.5 0.4)
(3 0 0)
(3 0 0.4)
(3 0.5 0)
(3 0.5 0.4)
(0 0 0)
(0 0 0.4)
(1 0 0)
(1 0 0.4)
(0 0 0.1)
(0.1 0 0)
(0 0 0.3)
(0.1 0 0.4)
(1 0 0.1)
(0.9 0 0)
(1 0 0.3)
(0.9 0 0.4)
(0 0 0.2)
(1 0 0.2)
(0.2 0 0)
(0.3 0 0)
(0.4 0 0)
(0.5 0 0)
(0.6 0 0)
(0.7 0 0)
(0.8 0 0)
(0.2 0 0.4)
(0.3 0 0.4)
(0.4 0 0.4)
(0.5 0 0.4)
(0.6 0 0.4)
(0.7 0 0.4)
(0.8 0 0.4)
(-0.5 0 0.1)
(-0.5 0.1 0)
(-0.5 0 0.3)
(-0.5 0.1 0.4)
(-0.5 0.4 0)
(-0.5 0.5 0.1)
(-0.5 0.5 0.3)
(-0.5 0.4 0.4)
(-0.5 0 0.2)
(-0.5 0.2 0)
(-0.5 0.3 0)
(-0.5 0.5 0.2)
(-0.5 0.2 0.4)
(-0.5 0.3 0.4)
(3 0 0.1)
(3 0.1 0)
(3 0 0.3)
(3 0.1 0.4)
(3 0.4 0)
(3 0.5 0.1)
(3 0.5 0.3)
(3 0.4 0.4)
(3 0 0.2)
(3 0.2 0)
(3 0.3 0)
(3 0.5 0.2)
(3 0.2 0.4)
(3 0.3 0.4)
(-0.1 0 0)
(-0.1 0 0.4)
(-0.4 0 0)
(-0.4 0 0.4)
(-0.3 0 0)
(-0.2 0 0)
(-0.3 0 0.4)
(-0.2 0 0.4)
(1.1 0 0)
(1.1 0 0.4)
(2.9 0 0)
(2.9 0 0.4)
(1.2 0 0)
(1.3 0 0)
(1.4 0 0)
(1.5 0 0)
(1.6 0 0)
(1.7 0 0)
(1.8 0 0)
(1.9 0 0)
(2 0 0)
(2.1 0 0)
(2.2 0 0)
(2.3 0 0)
(2.4 0 0)
(2.5 0 0)
(2.6 0 0)
(2.7 0 0)
(2.8 0 0)
(1.2 0 0.4)
(1.3 0 0.4)
(1.4 0 0.4)
(1.5 0 0.4)
(1.6 0 0.4)
(1.7 0 0.4)
(1.8 0 0.4)
(1.9 0 0.4)
(2 0 0.4)
(2.1 0 0.4)
(2.2 0 0.4)
(2.3 0 0.4)
(2.4 0 0.4)
(2.5 0 0.4)
(2.6 0 0.4)
(2.7 0 0.4)
(2.8 0 0.4)
(-0.4 0.5 0)
(-0.4 0.5 0.4)
(2.9 0.5 0)
(2.9 0.5 0.4)
(-0.3 0.5 0)
(-0.2 0.5 0)
(-0.1 0.5 0)
(0 0.5 0)
(0.1 0.5 0)
(0.2 0.5 0)
(0.3 0.5 0)
(0.4 0.5 0)
(0.5 0.5 0)
(0.6 0.5 0)
(0.7 0.5 0)
(0.8 0.5 0)
(0.9 0.5 0)
(1 0.5 0)
(1.1 0.5 0)
(1.2 0.5 0)
(1.3 0.5 0)
(1.4 0.5 0)
(1.5 0.5 0)
(1.6 0.5 0)
(1.7 0.5 0)
(1.8 0.5 0)
(1.9 0.5 0)
(2 0.5 0)
(2.1 0.5 0)
(2.2 0.5 0)
(2.3 0.5 0)
(2.4 0.5 0)
(2.5 0.5 0)
(2.6 0.5 0)
(2.7 0.5 0)
(2.8 0.5 0)
(-0.3 0.5 0.4)
(-0.2 0.5 0.4)
(-0.1 0.5 0.4)
(0 0.5 0.4)
(0.1 0.5 0.4)
(0.2 0.5 0.4)
(0.3 0.5 0.4)
(0.4 0.5 0.4)
(0.5 0.5 0.4)
(0.6 0.5 0.4)
(0.7 0.5 0.4)
(0.8 0.5 0.4)
(0.9 0.5 0.4)
(1 0.5 0.4)
(1.1 0.5 0.4)
(1.2 0.5 0.4)
(1.3 0.5 0.4)
(1.4 0.5 0.4)
(1.5 0.5 0.4)
(1.6 0.5 0.4)
(1.7 0.5 0.4)
(1.8 0.5 0.4)
(1.9 0.5 0.4)
(2 0.5 0.4)
(2.1 0.5 0.4)
(2.2 0.5 0.4)
(2.3 0.5 0.4)
(2.4 0.5 0.4)
(2.5 0.5 0.4)
(2.6 0.5 0.4)
(2.7 0.5 0.4)
(2.8 0.5 0.4)
)

// edges

184
(
(8 12)
(14 9)
(16 10)
(11 18)
(12 20)
(20 14)
(21 16)
(18 21)
(0 36)
(37 0)
(38 1)
(1 39)
(2 40)
(41 2)
(3 42)
(43 3)
(36 44)
(44 38)
(45 37)
(46 45)
(40 46)
(47 41)
(42 47)
(39 48)
(48 49)
(49 43)
(50 4)
(4 51)
(5 52)
(53 5)
(54 6)
(6 55)
(56 7)
(7 57)
(58 50)
(52 58)
(51 59)
(59 60)
(60 54)
(55 61)
(61 56)
(62 53)
(63 62)
(57 63)
(64 8)
(9 65)
(0 66)
(67 1)
(66 68)
(68 69)
(69 64)
(70 67)
(71 70)
(65 71)
(10 72)
(73 11)
(74 4)
(5 75)
(72 76)
(76 77)
(77 78)
(78 79)
(79 80)
(80 81)
(81 82)
(82 83)
(83 84)
(84 85)
(85 86)
(86 87)
(87 88)
(88 89)
(89 90)
(90 91)
(91 92)
(92 74)
(93 73)
(94 93)
(95 94)
(96 95)
(97 96)
(98 97)
(99 98)
(100 99)
(101 100)
(102 101)
(103 102)
(104 103)
(105 104)
(106 105)
(107 106)
(108 107)
(109 108)
(75 109)
(110 2)
(3 111)
(6 112)
(113 7)
(114 110)
(115 114)
(116 115)
(117 116)
(118 117)
(119 118)
(120 119)
(121 120)
(122 121)
(123 122)
(124 123)
(125 124)
(126 125)
(127 126)
(128 127)
(129 128)
(130 129)
(131 130)
(132 131)
(133 132)
(134 133)
(135 134)
(136 135)
(137 136)
(138 137)
(139 138)
(140 139)
(141 140)
(142 141)
(143 142)
(144 143)
(145 144)
(112 145)
(111 146)
(146 147)
(147 148)
(148 149)
(149 150)
(150 151)
(151 152)
(152 153)
(153 154)
(154 155)
(155 156)
(156 157)
(157 158)
(158 159)
(159 160)
(160 161)
(161 162)
(162 163)
(163 164)
(164 165)
(165 166)
(166 167)
(167 168)
(168 169)
(169 170)
(170 171)
(171 172)
(172 173)
(173 174)
(174 175)
(175 176)
(176 177)
(177 113)
(13 8)
(9 15)
(10 17)
(19 11)
(22 13)
(23 22)
(24 23)
(25 24)
(26 25)
(27 26)
(28 27)
(17 28)
(15 29)
(29 30)
(30 31)
(31 32)
(32 33)
(33 34)
(34 35)
(35 19)
)

// concaveStart mixedStart nonFeatureStart
8 8 12
// internalStart flatStart openStart multipleStart
164 184 184 184
// normals

368
(
(0 1 0)
(0 -1 0)
(0 1 0)
(0 0 -1)
(0 1 0)
(0 -1 0)
(0 1 0)
(0 0 1)
(0 1 -0)
(0 -1 0)
(0 1 0)
(0 0 -1)
(0 1 -0)
(0 -1 0)
(0 1 0)
(0 0 1)
(0 1 0)
(0 -1 0)
(0 1 0)
(0 -1 0)
(0 1 -0)
(0 -1 0)
(0 1 -0)
(0 -1 0)
(0 1 0)
(0 0 -1)
(0 1 0)
(0 0 -1)
(0 1 0)
(0 0 -1)
(0 1 0)
(0 0 -1)
(0 1 0)
(0 0 -1)
(0 1 0)
(0 0 -1)
(0 1 0)
(0 0 -1)
(0 1 0)
(0 0 -1)
(0 1 0)
(0 0 1)
(0 1 0)
(0 0 1)
(0 1 0)
(0 0 1)
(0 1 0)
(0 0 1)
(0 1 0)
(0 0 1)
(0 1 0)
(0 0 1)
(0 1 0)
(0 0 1)
(0 1 0)
(0 0 1)
(-1 0 0)
(0 -1 0)
(-1 0 0)
(0 0 -1)
(-1 0 0)
(0 -1 0)
(-1 0 0)
(0 0 1)
(-1 0 0)
(0 0 -1)
(-1 0 -0)
(0 1 0)
(-1 0 -0)
(0 1 0)
(-1 0 0)
(0 0 1)
(-1 0 0)
(0 -1 0)
(-1 0 0)
(0 -1 0)
(-1 0 0)
(0 0 -1)
(-1 0 0)
(0 0 -1)
(-1 0 0)
(0 0 -1)
(-1 0 -0)
(0 1 0)
(-1 0 -0)
(0 1 0)
(-1 0 0)
(0 0 1)
(-1 0 0)
(0 0 1)
(-1 0 0)
(0 0 1)
(1 0 0)
(0 -1 0)
(1 0 0)
(0 -0 -1)
(1 0 0)
(0 -1 0)
(1 -0 0)
(0 0 1)
(1 0 0)
(0 -0 -1)
(1 0 0)
(0 1 -0)
(1 0 0)
(0 1 -0)
(1 -0 0)
(0 0 1)
(1 0 0)
(0 -1 0)
(1 0 0)
(0 -1 0)
(1 0 0)
(0 -0 -1)
(1 0 0)
(0 -0 -1)
(1 0 0)
(0 -0 -1)
(1 0 0)
(0 1 -0)
(1 0 0)
(0 1 -0)
(1 -0 0)
(0 0 1)
(1 -0 0)
(0 0 1)
(1 -0 0)
(0 0 1)
(0 -1 0)
(0 0 -1)
(-0 -1 0)
(0 0 1)
(0 -1 0)
(0 0 -1)
(-0 -1 0)
(0 0 1)
(0 -1 0)
(0 0 -1)
(0 -1 0)
(0 0 -1)
(0 -1 0)
(0 0 -1)
(-0 -1 0)
(0 0 1)
(-0 -1 0)
(0 0 1)
(-0 -1 0)
(0 0 1)
(0 -1 0)
(0 0 -1)
(-0 -1 0)
(0 0 1)
(0 -1 0)
(0 0 -1)
(-0 -1 0)
(0 0 1)
(0 -1 0)
(0 0 -1)
(0 -1 0)
(0 0 -1)
(0 -1 0)
(0 0 -1)
(0 -1 0)
(0 0 -1)
(0 -1 0)
(0 0 -1)
(0 -1 0)
(0 0 -1)
(0 -1 0)
(0 0 -1)
(0 -1 0)
(0 0 -1)
(0 -1 0)
(0 0 -1)
(0 -1 0)
(0 0 -1)
(0 -1 0)
(0 0 -1)
(0 -1 0)
(0 0 -1)
(0 -1 0)
(0 0 -1)
(0 -1 0)
(0 0 -1)
(0 -1 0)
(0 0 -1)
(0 -1 0)
(0 0 -1)
(0 -1 0)
(0 0 -1)
(0 -1 0)
(0 0 -1)
(-0 -1 0)
(0 0 1)
(-0 -1 0)
(0 0 1)
(-0 -1 0)
(0 0 1)
(-0 -1 0)
(0 0 1)
(-0 -1 0)
(0 0 1)
(-0 -1 0)
(0 0 1)
(-0 -1 0)
(0 0 1)
(-0 -1 0)
(0 0 1)
(-0 -1 0)
(0 0 1)
(-0 -1 0)
(0 0 1)
(-0 -1 0)
(0 0 1)
(-0 -1 0)
(0 0 1)
(-0 -1 0)
(0 0 1)
(-0 -1 0)
(0 0 1)
(-0 -1 0)
(0 0 1)
(-0 -1 0)
(0 0 1)
(-0 -1 0)
(0 0 1)
(-0 -1 0)
(0 0 1)
(0 1 0)
(0 0 -1)
(0 1 0)
(-0 0 1)
(0 1 0)
(0 0 -1)
(0 1 0)
(-0 0 1)
(0 1 0)
(0 0 -1)
(0 1 0)
(0 0 -1)
(0 1 0)
(0 0 -1)
(0 1 0)
(0 0 -1)
(0 1 0)
(0 0 -1)
(0 1 0)
(0 0 -1)
(0 1 0)
(0 0 -1)
(0 1 0)
(0 0 -1)
(0 1 0)
(0 0 -1)
(0 1 0)
(0 0 -1)
(0 1 0)
(0 0 -1)
(0 1 0)
(0 0 -1)
(0 1 0)
(0 0 -1)
(0 1 0)
(0 0 -1)
(0 1 0)
(0 0 -1)
(0 1 0)
(0 0 -1)
(0 1 0)
(0 0 -1)
(0 1 0)
(0 0 -1)
(0 1 0)
(0 0 -1)
(0 1 0)
(0 0 -1)
(0 1 0)
(0 0 -1)
(0 1 0)
(0 0 -1)
(0 1 0)
(0 0 -1)
(0 1 0)
(0 0 -1)
(0 1 0)
(0 0 -1)
(0 1 0)
(0 0 -1)
(0 1 0)
(0 0 -1)
(0 1 0)
(0 0 -1)
(0 1 0)
(0 0 -1)
(0 1 0)
(0 0 -1)
(0 1 0)
(0 0 -1)
(0 1 0)
(0 0 -1)
(0 1 0)
(0 0 -1)
(0 1 0)
(-0 0 1)
(0 1 0)
(-0 0 1)
(0 1 0)
(-0 0 1)
(0 1 0)
(-0 0 1)
(0 1 0)
(-0 0 1)
(0 1 0)
(-0 0 1)
(0 1 0)
(-0 0 1)
(0 1 0)
(-0 0 1)
(0 1 0)
(-0 0 1)
(0 1 0)
(-0 0 1)
(0 1 0)
(-0 0 1)
(0 1 0)
(-0 0 1)
(0 1 0)
(-0 0 1)
(0 1 0)
(-0 0 1)
(0 1 0)
(-0 0 1)
(0 1 0)
(-0 0 1)
(0 1 0)
(-0 0 1)
(0 1 0)
(-0 0 1)
(0 1 0)
(-0 0 1)
(0 1 0)
(-0 0 1)
(0 1 0)
(-0 0 1)
(0 1 0)
(-0 0 1)
(0 1 0)
(-0 0 1)
(0 1 0)
(-0 0 1)
(0 1 0)
(-0 0 1)
(0 1 0)
(-0 0 1)
(0 1 0)
(-0 0 1)
(0 1 0)
(-0 0 1)
(0 1 0)
(-0 0 1)
(0 1 0)
(-0 0 1)
(0 1 0)
(-0 0 1)
(0 1 0)
(-0 0 1)
(0 1 0)
(-0 0 1)
)

// normal volume types

368
(
0
0
0
0
0
0
0
0
0
0
0
0
0
0
0
0
0
0
0
0
0
0
0
0
0
0
0
0
0
0
0
0
0
0
0
0
0
0
0
0
0
0
0
0
0
0
0
0
0
0
0
0
0
0
0
0
0
0
0
0
0
0
0
0
0
0
0
0
0
0
0
0
0
0
0
0
0
0
0
0
0
0
0
0
0
0
0
0
0
0
0
0
0
0
0
0
0
0
0
0
0
0
0
0
0
0
0
0
0
0
0
0
0
0
0
0
0
0
0
0
0
0
0
0
0
0
0
0
0
0
0
0
0
0
0
0
0
0
0
0
0
0
0
0
0
0
0
0
0
0
0
0
0
0
0
0
0
0
0
0
0
0
0
0
0
0
0
0
0
0
0
0
0
0
0
0
0
0
0
0
0
0
0
0
0
0
0
0
0
0
0
0
0
0
0
0
0
0
0
0
0
0
0
0
0
0
0
0
0
0
0
0
0
0
0
0
0
0
0
0
0
0
0
0
0
0
0
0
0
0
0
0
0
0
0
0
0
0
0
0
0
0
0
0
0
0
0
0
0
0
0
0
0
0
0
0
0
0
0
0
0
0
0
0
0
0
0
0
0
0
0
0
0
0
0
0
0
0
0
0
0
0
0
0
0
0
0
0
0
0
0
0
0
0
0
0
0
0
0
0
0
0
0
0
0
0
0
0
0
0
0
0
0
0
0
0
0
0
0
0
0
0
0
0
0
0
0
0
0
0
0
0
0
0
0
0
0
0
0
0
0
0
0
0
0
0
0
0
0
0
0
0
0
0
0
0
0
0
0
0
0
0
0
0
0
0
0
0
)

// normalDirections

184
(
2{1}
2{1}
2{1}
2{1}
2{1}
2{1}
2{1}
2{1}
2(1 -1)
2(1 -1)
2(1 -1)
2(1 -1)
2(1 -1)
2(1 -1)
2(1 -1)
2(1 -1)
2(1 -1)
2(1 -1)
2(1 -1)
2(1 -1)
2(1 -1)
2(1 -1)
2(1 -1)
2(1 -1)
2(1 -1)
2(1 -1)
2(1 -1)
2(1 -1)
2(1 -1)
2(1 -1)
2(1 -1)
2(1 -1)
2(1 -1)
2(1 -1)
2(1 -1)
2(1 -1)
2(1 -1)
2(1 -1)
2(1 -1)
2(1 -1)
2(1 -1)
2(1 -1)
2(1 -1)
2(1 -1)
2(1 -1)
2(1 -1)
2(1 -1)
2(1 -1)
2(1 -1)
2(1 -1)
2(1 -1)
2(1 -1)
2(1 -1)
2(1 -1)
2(1 -1)
2(1 -1)
2(1 -1)
2(1 -1)
2(1 -1)
2(1 -1)
2(1 -1)
2(1 -1)
2(1 -1)
2(1 -1)
2(1 -1)
2(1 -1)
2(1 -1)
2(1 -1)
2(1 -1)
2(1 -1)
2(1 -1)
2(1 -1)
2(1 -1)
2(1 -1)
2(1 -1)
2(1 -1)
2(1 -1)
2(1 -1)
2(1 -1)
2(1 -1)
2(1 -1)
2(1 -1)
2(1 -1)
2(1 -1)
2(1 -1)
2(1 -1)
2(1 -1)
2(1 -1)
2(1 -1)
2(1 -1)
2(1 -1)
2(1 -1)
2(1 -1)
2(1 -1)
2(1 -1)
2(1 -1)
2(1 -1)
2(1 -1)
2(1 -1)
2(1 -1)
2(1 -1)
2(1 -1)
2(1 -1)
2(1 -1)
2(1 -1)
2(1 -1)
2(1 -1)
2(1 -1)
2(1 -1)
2(1 -1)
2(1 -1)
2(1 -1)
2(1 -1)
2(1 -1)
2(1 -1)
2(1 -1)
2(1 -1)
2(1 -1)
2(1 -1)
2(1 -1)
2(1 -1)
2(1 -1)
2(1 -1)
2(1 -1)
2(1 -1)
2(1 -1)
2(1 -1)
2(1 -1)
2(1 -1)
2(1 -1)
2(1 -1)
2(1 -1)
2(1 -1)
2(1 -1)
2(1 -1)
2(1 -1)
2(1 -1)
2(1 -1)
2(1 -1)
2(1 -1)
2(1 -1)
2(1 -1)
2(1 -1)
2(1 -1)
2(1 -1)
2(1 -1)
2(1 -1)
2(1 -1)
2(1 -1)
2(1 -1)
2(1 -1)
2(1 -1)
2(1 -1)
2(1 -1)
2(1 -1)
2(1 -1)
2(1 -1)
2(1 -1)
2(1 -1)
2(1 -1)
2(1 -1)
2(1 -1)
2(1 -1)
2(1 -1)
2{1}
2{1}
2{1}
2{1}
2{1}
2{1}
2{1}
2{1}
2{1}
2{1}
2{1}
2{1}
2{1}
2{1}
2{1}
2{1}
2{1}
2{1}
2{1}
2{1}
)

// edgeNormals

184
(
2(0 1)
2(4 5)
2(8 9)
2(12 13)
2(16 17)
2(18 19)
2(20 21)
2(22 23)
2(56 57)
2(58 59)
2(60 61)
2(62 63)
2(64 65)
2(66 67)
2(68 69)
2(70 71)
2(72 73)
2(74 75)
2(76 77)
2(78 79)
2(80 81)
2(82 83)
2(84 85)
2(86 87)
2(88 89)
2(90 91)
2(92 93)
2(94 95)
2(96 97)
2(98 99)
2(100 101)
2(102 103)
2(104 105)
2(106 107)
2(108 109)
2(110 111)
2(112 113)
2(114 115)
2(116 117)
2(118 119)
2(120 121)
2(122 123)
2(124 125)
2(126 127)
2(128 129)
2(130 131)
2(132 133)
2(134 135)
2(136 137)
2(138 139)
2(140 141)
2(142 143)
2(144 145)
2(146 147)
2(148 149)
2(150 151)
2(152 153)
2(154 155)
2(156 157)
2(158 159)
2(160 161)
2(162 163)
2(164 165)
2(166 167)
2(168 169)
2(170 171)
2(172 173)
2(174 175)
2(176 177)
2(178 179)
2(180 181)
2(182 183)
2(184 185)
2(186 187)
2(188 189)
2(190 191)
2(192 193)
2(194 195)
2(196 197)
2(198 199)
2(200 201)
2(202 203)
2(204 205)
2(206 207)
2(208 209)
2(210 211)
2(212 213)
2(214 215)
2(216 217)
2(218 219)
2(220 221)
2(222 223)
2(224 225)
2(226 227)
2(228 229)
2(230 231)
2(232 233)
2(234 235)
2(236 237)
2(238 239)
2(240 241)
2(242 243)
2(244 245)
2(246 247)
2(248 249)
2(250 251)
2(252 253)
2(254 255)
2(256 257)
2(258 259)
2(260 261)
2(262 263)
2(264 265)
2(266 267)
2(268 269)
2(270 271)
2(272 273)
2(274 275)
2(276 277)
2(278 279)
2(280 281)
2(282 283)
2(284 285)
2(286 287)
2(288 289)
2(290 291)
2(292 293)
2(294 295)
2(296 297)
2(298 299)
2(300 301)
2(302 303)
2(304 305)
2(306 307)
2(308 309)
2(310 311)
2(312 313)
2(314 315)
2(316 317)
2(318 319)
2(320 321)
2(322 323)
2(324 325)
2(326 327)
2(328 329)
2(330 331)
2(332 333)
2(334 335)
2(336 337)
2(338 339)
2(340 341)
2(342 343)
2(344 345)
2(346 347)
2(348 349)
2(350 351)
2(352 353)
2(354 355)
2(356 357)
2(358 359)
2(360 361)
2(362 363)
2(364 365)
2(366 367)
2(2 3)
2(6 7)
2(10 11)
2(14 15)
2(24 25)
2(26 27)
2(28 29)
2(30 31)
2(32 33)
2(34 35)
2(36 37)
2(38 39)
2(40 41)
2(42 43)
2(44 45)
2(46 47)
2(48 49)
2(50 51)
2(52 53)
2(54 55)
)

// featurePointNormals

12
(
3(56 57 59)
3(60 61 63)
3(64 65 67)
3(68 69 71)
3(92 93 95)
3(96 97 99)
3(100 101 103)
3(104 105 107)
3(0 1 129)
3(4 5 131)
3(8 9 149)
3(12 13 151)
)

// featurePointEdges

12
(
3(9 46 8)
3(11 47 10)
3(13 94 12)
3(15 95 14)
3(27 56 26)
3(29 57 28)
3(31 96 30)
3(33 97 32)
3(164 44 0)
3(165 45 1)
3(166 54 2)
3(167 55 3)
)

// regionEdges

64
(
0
164
1
165
2
166
3
167
4
5
6
7
168
169
170
171
172
173
174
175
176
177
178
179
180
181
182
183
8
9
10
11
12
13
14
15
16
17
18
19
20
21
22
23
24
25
26
27
28
29
30
31
32
33
34
35
36
37
38
39
40
41
42
43
)



// ************************************************************************* //
