/*--------------------------------*- C++ -*----------------------------------*\
| =========                 |                                                 |
| \\      /  F ield         | OpenFOAM: The Open Source CFD Toolbox           |
|  \\    /   O peration     | Version:  2312                                  |
|   \\  /    A nd           | Website:  www.openfoam.com                      |
|    \\/     M anipulation  |                                                 |
\*---------------------------------------------------------------------------*/
FoamFile
{
    version     2.0;
    format      ascii;
    arch        "LSB;label=32;scalar=64";
    class       featureEdgeMesh;
    location    "constant/triSurface";
    object      Fluid_Participant_Mesh.eMesh;
}
// * * * * * * * * * * * * * * * * * * * * * * * * * * * * * * * * * * * * * //


// points:

178
(
(-0.5 0 0)
(-0.5 0 0.4)
(-0.5 0.5 0)
(-0.5 0.5 0.4)
(3 0 0)
(3 0 0.4)
(3 0.5 0)
(3 0.5 0.4)
(0 0 0)
(0 0 0.4)
(1 0 0)
(1 0 0.4)
(0 0 0.1)
(0.1 0 0)
(0 0 0.3)
(0.1 0 0.4)
(1 0 0.1)
(0.9 0 0)
(1 0 0.3)
(0.9 0 0.4)
(0 0 0.2)
(1 0 0.2)
(0.2 0 0)
(0.3 0 0)
(0.4 0 0)
(0.5 0 0)
(0.6 0 0)
(0.7 0 0)
(0.8 0 0)
(0.2 0 0.4)
(0.3 0 0.4)
(0.4 0 0.4)
(0.5 0 0.4)
(0.6 0 0.4)
(0.7 0 0.4)
(0.8 0 0.4)
(-0.5 0 0.1)
(-0.5 0.1 0)
(-0.5 0 0.3)
(-0.5 0.1 0.4)
(-0.5 0.4 0)
(-0.5 0.5 0.1)
(-0.5 0.5 0.3)
(-0.5 0.4 0.4)
(-0.5 0 0.2)
(-0.5 0.2 0)
(-0.5 0.3 0)
(-0.5 0.5 0.2)
(-0.5 0.2 0.4)
(-0.5 0.3 0.4)
(3 0 0.1)
(3 0.1 0)
(3 0 0.3)
(3 0.1 0.4)
(3 0.4 0)
(3 0.5 0.1)
(3 0.5 0.3)
(3 0.4 0.4)
(3 0 0.2)
(3 0.2 0)
(3 0.3 0)
(3 0.5 0.2)
(3 0.2 0.4)
(3 0.3 0.4)
(-0.1 0 0)
(-0.1 0 0.4)
(-0.4 0 0)
(-0.4 0 0.4)
(-0.3 0 0)
(-0.2 0 0)
(-0.3 0 0.4)
(-0.2 0 0.4)
(1.1 0 0)
(1.1 0 0.4)
(2.9 0 0)
(2.9 0 0.4)
(1.2 0 0)
(1.3 0 0)
(1.4 0 0)
(1.5 0 0)
(1.6 0 0)
(1.7 0 0)
(1.8 0 0)
(1.9 0 0)
(2 0 0)
(2.1 0 0)
(2.2 0 0)
(2.3 0 0)
(2.4 0 0)
(2.5 0 0)
(2.6 0 0)
(2.7 0 0)
(2.8 0 0)
(1.2 0 0.4)
(1.3 0 0.4)
(1.4 0 0.4)
(1.5 0 0.4)
(1.6 0 0.4)
(1.7 0 0.4)
(1.8 0 0.4)
(1.9 0 0.4)
(2 0 0.4)
(2.1 0 0.4)
(2.2 0 0.4)
(2.3 0 0.4)
(2.4 0 0.4)
(2.5 0 0.4)
(2.6 0 0.4)
(2.7 0 0.4)
(2.8 0 0.4)
(-0.4 0.5 0)
(-0.4 0.5 0.4)
(2.9 0.5 0)
(2.9 0.5 0.4)
(-0.3 0.5 0)
(-0.2 0.5 0)
(-0.1 0.5 0)
(0 0.5 0)
(0.1 0.5 0)
(0.2 0.5 0)
(0.3 0.5 0)
(0.4 0.5 0)
(0.5 0.5 0)
(0.6 0.5 0)
(0.7 0.5 0)
(0.8 0.5 0)
(0.9 0.5 0)
(1 0.5 0)
(1.1 0.5 0)
(1.2 0.5 0)
(1.3 0.5 0)
(1.4 0.5 0)
(1.5 0.5 0)
(1.6 0.5 0)
(1.7 0.5 0)
(1.8 0.5 0)
(1.9 0.5 0)
(2 0.5 0)
(2.1 0.5 0)
(2.2 0.5 0)
(2.3 0.5 0)
(2.4 0.5 0)
(2.5 0.5 0)
(2.6 0.5 0)
(2.7 0.5 0)
(2.8 0.5 0)
(-0.3 0.5 0.4)
(-0.2 0.5 0.4)
(-0.1 0.5 0.4)
(0 0.5 0.4)
(0.1 0.5 0.4)
(0.2 0.5 0.4)
(0.3 0.5 0.4)
(0.4 0.5 0.4)
(0.5 0.5 0.4)
(0.6 0.5 0.4)
(0.7 0.5 0.4)
(0.8 0.5 0.4)
(0.9 0.5 0.4)
(1 0.5 0.4)
(1.1 0.5 0.4)
(1.2 0.5 0.4)
(1.3 0.5 0.4)
(1.4 0.5 0.4)
(1.5 0.5 0.4)
(1.6 0.5 0.4)
(1.7 0.5 0.4)
(1.8 0.5 0.4)
(1.9 0.5 0.4)
(2 0.5 0.4)
(2.1 0.5 0.4)
(2.2 0.5 0.4)
(2.3 0.5 0.4)
(2.4 0.5 0.4)
(2.5 0.5 0.4)
(2.6 0.5 0.4)
(2.7 0.5 0.4)
(2.8 0.5 0.4)
)


// edges:

184
(
(8 12)
(14 9)
(16 10)
(11 18)
(12 20)
(20 14)
(21 16)
(18 21)
(0 36)
(37 0)
(38 1)
(1 39)
(2 40)
(41 2)
(3 42)
(43 3)
(36 44)
(44 38)
(45 37)
(46 45)
(40 46)
(47 41)
(42 47)
(39 48)
(48 49)
(49 43)
(50 4)
(4 51)
(5 52)
(53 5)
(54 6)
(6 55)
(56 7)
(7 57)
(58 50)
(52 58)
(51 59)
(59 60)
(60 54)
(55 61)
(61 56)
(62 53)
(63 62)
(57 63)
(64 8)
(9 65)
(0 66)
(67 1)
(66 68)
(68 69)
(69 64)
(70 67)
(71 70)
(65 71)
(10 72)
(73 11)
(74 4)
(5 75)
(72 76)
(76 77)
(77 78)
(78 79)
(79 80)
(80 81)
(81 82)
(82 83)
(83 84)
(84 85)
(85 86)
(86 87)
(87 88)
(88 89)
(89 90)
(90 91)
(91 92)
(92 74)
(93 73)
(94 93)
(95 94)
(96 95)
(97 96)
(98 97)
(99 98)
(100 99)
(101 100)
(102 101)
(103 102)
(104 103)
(105 104)
(106 105)
(107 106)
(108 107)
(109 108)
(75 109)
(110 2)
(3 111)
(6 112)
(113 7)
(114 110)
(115 114)
(116 115)
(117 116)
(118 117)
(119 118)
(120 119)
(121 120)
(122 121)
(123 122)
(124 123)
(125 124)
(126 125)
(127 126)
(128 127)
(129 128)
(130 129)
(131 130)
(132 131)
(133 132)
(134 133)
(135 134)
(136 135)
(137 136)
(138 137)
(139 138)
(140 139)
(141 140)
(142 141)
(143 142)
(144 143)
(145 144)
(112 145)
(111 146)
(146 147)
(147 148)
(148 149)
(149 150)
(150 151)
(151 152)
(152 153)
(153 154)
(154 155)
(155 156)
(156 157)
(157 158)
(158 159)
(159 160)
(160 161)
(161 162)
(162 163)
(163 164)
(164 165)
(165 166)
(166 167)
(167 168)
(168 169)
(169 170)
(170 171)
(171 172)
(172 173)
(173 174)
(174 175)
(175 176)
(176 177)
(177 113)
(13 8)
(9 15)
(10 17)
(19 11)
(22 13)
(23 22)
(24 23)
(25 24)
(26 25)
(27 26)
(28 27)
(17 28)
(15 29)
(29 30)
(30 31)
(31 32)
(32 33)
(33 34)
(34 35)
(35 19)
)

// * * * * * * * * * * * * * * * * * * * * * * * * * * * * * * * * * * * * * //


// ************************************************************************* //
