/*--------------------------------*- C++ -*----------------------------------*\
| =========                 |                                                 |
| \\      /  F ield         | OpenFOAM: The Open Source CFD Toolbox           |
|  \\    /   O peration     | Version:  2312                                  |
|   \\  /    A nd           | Website:  www.openfoam.com                      |
|    \\/     M anipulation  |                                                 |
\*---------------------------------------------------------------------------*/
FoamFile
{
    version     2.0;
    format      ascii;
    arch        "LSB;label=32;scalar=64";
    class       extendedFeatureEdgeMesh;
    location    "constant/extendedFeatureEdgeMesh";
    object      Fluid_Participant_Mesh.extendedFeatureEdgeMesh;
}
// * * * * * * * * * * * * * * * * * * * * * * * * * * * * * * * * * * * * * //

// points

486
(
(-5 0 2.5)
(-5 0 5)
(-5 2.5 2.5)
(-5 2.5 5)
(25 0 2.5)
(25 0 5)
(25 2.5 2.5)
(25 2.5 5)
(0 0 2.5)
(0 2.5 2.5)
(10 0 2.5)
(10 2.5 2.5)
(0 0.277778 2.5)
(0.294118 0 2.5)
(0 2.22222 2.5)
(0.294118 2.5 2.5)
(10 0.277778 2.5)
(9.70588 0 2.5)
(10 2.22222 2.5)
(9.70588 2.5 2.5)
(0 0.555556 2.5)
(0 0.833333 2.5)
(0 1.11111 2.5)
(0 1.38889 2.5)
(0 1.66667 2.5)
(0 1.94444 2.5)
(10 0.555556 2.5)
(10 0.833333 2.5)
(10 1.11111 2.5)
(10 1.38889 2.5)
(10 1.66667 2.5)
(10 1.94444 2.5)
(0.588235 0 2.5)
(0.882353 0 2.5)
(1.17647 0 2.5)
(1.47059 0 2.5)
(1.76471 0 2.5)
(2.05882 0 2.5)
(2.35294 0 2.5)
(2.64706 0 2.5)
(2.94118 0 2.5)
(3.23529 0 2.5)
(3.52941 0 2.5)
(3.82353 0 2.5)
(4.11765 0 2.5)
(4.41176 0 2.5)
(4.70588 0 2.5)
(5 0 2.5)
(5.29412 0 2.5)
(5.58824 0 2.5)
(5.88235 0 2.5)
(6.17647 0 2.5)
(6.47059 0 2.5)
(6.76471 0 2.5)
(7.05882 0 2.5)
(7.35294 0 2.5)
(7.64706 0 2.5)
(7.94118 0 2.5)
(8.23529 0 2.5)
(8.52941 0 2.5)
(8.82353 0 2.5)
(9.11765 0 2.5)
(9.41177 0 2.5)
(0.588235 2.5 2.5)
(0.882353 2.5 2.5)
(1.17647 2.5 2.5)
(1.47059 2.5 2.5)
(1.76471 2.5 2.5)
(2.05882 2.5 2.5)
(2.35294 2.5 2.5)
(2.64706 2.5 2.5)
(2.94118 2.5 2.5)
(3.23529 2.5 2.5)
(3.52941 2.5 2.5)
(3.82353 2.5 2.5)
(4.11765 2.5 2.5)
(4.41176 2.5 2.5)
(4.70588 2.5 2.5)
(5 2.5 2.5)
(5.29412 2.5 2.5)
(5.58824 2.5 2.5)
(5.88235 2.5 2.5)
(6.17647 2.5 2.5)
(6.47059 2.5 2.5)
(6.76471 2.5 2.5)
(7.05882 2.5 2.5)
(7.35294 2.5 2.5)
(7.64706 2.5 2.5)
(7.94118 2.5 2.5)
(8.23529 2.5 2.5)
(8.52941 2.5 2.5)
(8.82353 2.5 2.5)
(9.11765 2.5 2.5)
(9.41177 2.5 2.5)
(-5 0 2.77778)
(-5 0.277778 2.5)
(-5 0 4.72222)
(-5 0.277778 5)
(-5 2.22222 2.5)
(-5 2.5 2.77778)
(-5 2.5 4.72222)
(-5 2.22222 5)
(-5 0 3.05556)
(-5 0 3.33333)
(-5 0 3.61111)
(-5 0 3.88889)
(-5 0 4.16667)
(-5 0 4.44444)
(-5 0.555556 2.5)
(-5 0.833333 2.5)
(-5 1.11111 2.5)
(-5 1.38889 2.5)
(-5 1.66667 2.5)
(-5 1.94444 2.5)
(-5 2.5 3.05556)
(-5 2.5 3.33333)
(-5 2.5 3.61111)
(-5 2.5 3.88889)
(-5 2.5 4.16667)
(-5 2.5 4.44444)
(-5 0.555556 5)
(-5 0.833333 5)
(-5 1.11111 5)
(-5 1.38889 5)
(-5 1.66667 5)
(-5 1.94444 5)
(25 0 2.77778)
(25 0.277778 2.5)
(25 0 4.72222)
(25 0.277778 5)
(25 2.22222 2.5)
(25 2.5 2.77778)
(25 2.5 4.72222)
(25 2.22222 5)
(25 0 3.05556)
(25 0 3.33333)
(25 0 3.61111)
(25 0 3.88889)
(25 0 4.16667)
(25 0 4.44444)
(25 0.555556 2.5)
(25 0.833333 2.5)
(25 1.11111 2.5)
(25 1.38889 2.5)
(25 1.66667 2.5)
(25 1.94444 2.5)
(25 2.5 3.05556)
(25 2.5 3.33333)
(25 2.5 3.61111)
(25 2.5 3.88889)
(25 2.5 4.16667)
(25 2.5 4.44444)
(25 0.555556 5)
(25 0.833333 5)
(25 1.11111 5)
(25 1.38889 5)
(25 1.66667 5)
(25 1.94444 5)
(-0.294118 0 2.5)
(10.3 0 2.5)
(-4.70588 0 2.5)
(-4.7 0 5)
(24.7 0 2.5)
(24.7 0 5)
(-4.41176 0 2.5)
(-4.11765 0 2.5)
(-3.82353 0 2.5)
(-3.52941 0 2.5)
(-3.23529 0 2.5)
(-2.94118 0 2.5)
(-2.64706 0 2.5)
(-2.35294 0 2.5)
(-2.05882 0 2.5)
(-1.76471 0 2.5)
(-1.47059 0 2.5)
(-1.17647 0 2.5)
(-0.882353 0 2.5)
(-0.588235 0 2.5)
(10.6 0 2.5)
(10.9 0 2.5)
(11.2 0 2.5)
(11.5 0 2.5)
(11.8 0 2.5)
(12.1 0 2.5)
(12.4 0 2.5)
(12.7 0 2.5)
(13 0 2.5)
(13.3 0 2.5)
(13.6 0 2.5)
(13.9 0 2.5)
(14.2 0 2.5)
(14.5 0 2.5)
(14.8 0 2.5)
(15.1 0 2.5)
(15.4 0 2.5)
(15.7 0 2.5)
(16 0 2.5)
(16.3 0 2.5)
(16.6 0 2.5)
(16.9 0 2.5)
(17.2 0 2.5)
(17.5 0 2.5)
(17.8 0 2.5)
(18.1 0 2.5)
(18.4 0 2.5)
(18.7 0 2.5)
(19 0 2.5)
(19.3 0 2.5)
(19.6 0 2.5)
(19.9 0 2.5)
(20.2 0 2.5)
(20.5 0 2.5)
(20.8 0 2.5)
(21.1 0 2.5)
(21.4 0 2.5)
(21.7 0 2.5)
(22 0 2.5)
(22.3 0 2.5)
(22.6 0 2.5)
(22.9 0 2.5)
(23.2 0 2.5)
(23.5 0 2.5)
(23.8 0 2.5)
(24.1 0 2.5)
(24.4 0 2.5)
(-4.4 0 5)
(-4.1 0 5)
(-3.8 0 5)
(-3.5 0 5)
(-3.2 0 5)
(-2.9 0 5)
(-2.6 0 5)
(-2.3 0 5)
(-2 0 5)
(-1.7 0 5)
(-1.4 0 5)
(-1.1 0 5)
(-0.8 0 5)
(-0.5 0 5)
(-0.2 0 5)
(0.1 0 5)
(0.4 0 5)
(0.7 0 5)
(1 0 5)
(1.3 0 5)
(1.6 0 5)
(1.9 0 5)
(2.2 0 5)
(2.5 0 5)
(2.8 0 5)
(3.1 0 5)
(3.4 0 5)
(3.7 0 5)
(4 0 5)
(4.3 0 5)
(4.6 0 5)
(4.9 0 5)
(5.2 0 5)
(5.5 0 5)
(5.8 0 5)
(6.1 0 5)
(6.4 0 5)
(6.7 0 5)
(7 0 5)
(7.3 0 5)
(7.6 0 5)
(7.9 0 5)
(8.2 0 5)
(8.5 0 5)
(8.8 0 5)
(9.1 0 5)
(9.4 0 5)
(9.7 0 5)
(10 0 5)
(10.3 0 5)
(10.6 0 5)
(10.9 0 5)
(11.2 0 5)
(11.5 0 5)
(11.8 0 5)
(12.1 0 5)
(12.4 0 5)
(12.7 0 5)
(13 0 5)
(13.3 0 5)
(13.6 0 5)
(13.9 0 5)
(14.2 0 5)
(14.5 0 5)
(14.8 0 5)
(15.1 0 5)
(15.4 0 5)
(15.7 0 5)
(16 0 5)
(16.3 0 5)
(16.6 0 5)
(16.9 0 5)
(17.2 0 5)
(17.5 0 5)
(17.8 0 5)
(18.1 0 5)
(18.4 0 5)
(18.7 0 5)
(19 0 5)
(19.3 0 5)
(19.6 0 5)
(19.9 0 5)
(20.2 0 5)
(20.5 0 5)
(20.8 0 5)
(21.1 0 5)
(21.4 0 5)
(21.7 0 5)
(22 0 5)
(22.3 0 5)
(22.6 0 5)
(22.9 0 5)
(23.2 0 5)
(23.5 0 5)
(23.8 0 5)
(24.1 0 5)
(24.4 0 5)
(-0.294118 2.5 2.5)
(10.3 2.5 2.5)
(-4.70588 2.5 2.5)
(-4.7 2.5 5)
(24.7 2.5 2.5)
(24.7 2.5 5)
(-4.41176 2.5 2.5)
(-4.11765 2.5 2.5)
(-3.82353 2.5 2.5)
(-3.52941 2.5 2.5)
(-3.23529 2.5 2.5)
(-2.94118 2.5 2.5)
(-2.64706 2.5 2.5)
(-2.35294 2.5 2.5)
(-2.05882 2.5 2.5)
(-1.76471 2.5 2.5)
(-1.47059 2.5 2.5)
(-1.17647 2.5 2.5)
(-0.882353 2.5 2.5)
(-0.588235 2.5 2.5)
(10.6 2.5 2.5)
(10.9 2.5 2.5)
(11.2 2.5 2.5)
(11.5 2.5 2.5)
(11.8 2.5 2.5)
(12.1 2.5 2.5)
(12.4 2.5 2.5)
(12.7 2.5 2.5)
(13 2.5 2.5)
(13.3 2.5 2.5)
(13.6 2.5 2.5)
(13.9 2.5 2.5)
(14.2 2.5 2.5)
(14.5 2.5 2.5)
(14.8 2.5 2.5)
(15.1 2.5 2.5)
(15.4 2.5 2.5)
(15.7 2.5 2.5)
(16 2.5 2.5)
(16.3 2.5 2.5)
(16.6 2.5 2.5)
(16.9 2.5 2.5)
(17.2 2.5 2.5)
(17.5 2.5 2.5)
(17.8 2.5 2.5)
(18.1 2.5 2.5)
(18.4 2.5 2.5)
(18.7 2.5 2.5)
(19 2.5 2.5)
(19.3 2.5 2.5)
(19.6 2.5 2.5)
(19.9 2.5 2.5)
(20.2 2.5 2.5)
(20.5 2.5 2.5)
(20.8 2.5 2.5)
(21.1 2.5 2.5)
(21.4 2.5 2.5)
(21.7 2.5 2.5)
(22 2.5 2.5)
(22.3 2.5 2.5)
(22.6 2.5 2.5)
(22.9 2.5 2.5)
(23.2 2.5 2.5)
(23.5 2.5 2.5)
(23.8 2.5 2.5)
(24.1 2.5 2.5)
(24.4 2.5 2.5)
(-4.4 2.5 5)
(-4.1 2.5 5)
(-3.8 2.5 5)
(-3.5 2.5 5)
(-3.2 2.5 5)
(-2.9 2.5 5)
(-2.6 2.5 5)
(-2.3 2.5 5)
(-2 2.5 5)
(-1.7 2.5 5)
(-1.4 2.5 5)
(-1.1 2.5 5)
(-0.8 2.5 5)
(-0.5 2.5 5)
(-0.2 2.5 5)
(0.1 2.5 5)
(0.4 2.5 5)
(0.7 2.5 5)
(1 2.5 5)
(1.3 2.5 5)
(1.6 2.5 5)
(1.9 2.5 5)
(2.2 2.5 5)
(2.5 2.5 5)
(2.8 2.5 5)
(3.1 2.5 5)
(3.4 2.5 5)
(3.7 2.5 5)
(4 2.5 5)
(4.3 2.5 5)
(4.6 2.5 5)
(4.9 2.5 5)
(5.2 2.5 5)
(5.5 2.5 5)
(5.8 2.5 5)
(6.1 2.5 5)
(6.4 2.5 5)
(6.7 2.5 5)
(7 2.5 5)
(7.3 2.5 5)
(7.6 2.5 5)
(7.9 2.5 5)
(8.2 2.5 5)
(8.5 2.5 5)
(8.8 2.5 5)
(9.1 2.5 5)
(9.4 2.5 5)
(9.7 2.5 5)
(10 2.5 5)
(10.3 2.5 5)
(10.6 2.5 5)
(10.9 2.5 5)
(11.2 2.5 5)
(11.5 2.5 5)
(11.8 2.5 5)
(12.1 2.5 5)
(12.4 2.5 5)
(12.7 2.5 5)
(13 2.5 5)
(13.3 2.5 5)
(13.6 2.5 5)
(13.9 2.5 5)
(14.2 2.5 5)
(14.5 2.5 5)
(14.8 2.5 5)
(15.1 2.5 5)
(15.4 2.5 5)
(15.7 2.5 5)
(16 2.5 5)
(16.3 2.5 5)
(16.6 2.5 5)
(16.9 2.5 5)
(17.2 2.5 5)
(17.5 2.5 5)
(17.8 2.5 5)
(18.1 2.5 5)
(18.4 2.5 5)
(18.7 2.5 5)
(19 2.5 5)
(19.3 2.5 5)
(19.6 2.5 5)
(19.9 2.5 5)
(20.2 2.5 5)
(20.5 2.5 5)
(20.8 2.5 5)
(21.1 2.5 5)
(21.4 2.5 5)
(21.7 2.5 5)
(22 2.5 5)
(22.3 2.5 5)
(22.6 2.5 5)
(22.9 2.5 5)
(23.2 2.5 5)
(23.5 2.5 5)
(23.8 2.5 5)
(24.1 2.5 5)
(24.4 2.5 5)
)

// edges

492
(
(12 8)
(9 14)
(10 16)
(18 11)
(20 12)
(21 20)
(22 21)
(23 22)
(24 23)
(25 24)
(14 25)
(16 26)
(26 27)
(27 28)
(28 29)
(29 30)
(30 31)
(31 18)
(0 94)
(95 0)
(96 1)
(1 97)
(2 98)
(99 2)
(3 100)
(101 3)
(94 102)
(102 103)
(103 104)
(104 105)
(105 106)
(106 107)
(107 96)
(108 95)
(109 108)
(110 109)
(111 110)
(112 111)
(113 112)
(98 113)
(114 99)
(115 114)
(116 115)
(117 116)
(118 117)
(119 118)
(100 119)
(97 120)
(120 121)
(121 122)
(122 123)
(123 124)
(124 125)
(125 101)
(126 4)
(4 127)
(5 128)
(129 5)
(130 6)
(6 131)
(132 7)
(7 133)
(134 126)
(135 134)
(136 135)
(137 136)
(138 137)
(139 138)
(128 139)
(127 140)
(140 141)
(141 142)
(142 143)
(143 144)
(144 145)
(145 130)
(131 146)
(146 147)
(147 148)
(148 149)
(149 150)
(150 151)
(151 132)
(152 129)
(153 152)
(154 153)
(155 154)
(156 155)
(157 156)
(133 157)
(158 8)
(10 159)
(0 160)
(161 1)
(162 4)
(5 163)
(160 164)
(164 165)
(165 166)
(166 167)
(167 168)
(168 169)
(169 170)
(170 171)
(171 172)
(172 173)
(173 174)
(174 175)
(175 176)
(176 177)
(177 158)
(159 178)
(178 179)
(179 180)
(180 181)
(181 182)
(182 183)
(183 184)
(184 185)
(185 186)
(186 187)
(187 188)
(188 189)
(189 190)
(190 191)
(191 192)
(192 193)
(193 194)
(194 195)
(195 196)
(196 197)
(197 198)
(198 199)
(199 200)
(200 201)
(201 202)
(202 203)
(203 204)
(204 205)
(205 206)
(206 207)
(207 208)
(208 209)
(209 210)
(210 211)
(211 212)
(212 213)
(213 214)
(214 215)
(215 216)
(216 217)
(217 218)
(218 219)
(219 220)
(220 221)
(221 222)
(222 223)
(223 224)
(224 162)
(225 161)
(226 225)
(227 226)
(228 227)
(229 228)
(230 229)
(231 230)
(232 231)
(233 232)
(234 233)
(235 234)
(236 235)
(237 236)
(238 237)
(239 238)
(240 239)
(241 240)
(242 241)
(243 242)
(244 243)
(245 244)
(246 245)
(247 246)
(248 247)
(249 248)
(250 249)
(251 250)
(252 251)
(253 252)
(254 253)
(255 254)
(256 255)
(257 256)
(258 257)
(259 258)
(260 259)
(261 260)
(262 261)
(263 262)
(264 263)
(265 264)
(266 265)
(267 266)
(268 267)
(269 268)
(270 269)
(271 270)
(272 271)
(273 272)
(274 273)
(275 274)
(276 275)
(277 276)
(278 277)
(279 278)
(280 279)
(281 280)
(282 281)
(283 282)
(284 283)
(285 284)
(286 285)
(287 286)
(288 287)
(289 288)
(290 289)
(291 290)
(292 291)
(293 292)
(294 293)
(295 294)
(296 295)
(297 296)
(298 297)
(299 298)
(300 299)
(301 300)
(302 301)
(303 302)
(304 303)
(305 304)
(306 305)
(307 306)
(308 307)
(309 308)
(310 309)
(311 310)
(312 311)
(313 312)
(314 313)
(315 314)
(316 315)
(317 316)
(318 317)
(319 318)
(320 319)
(321 320)
(163 321)
(9 322)
(323 11)
(324 2)
(3 325)
(6 326)
(327 7)
(328 324)
(329 328)
(330 329)
(331 330)
(332 331)
(333 332)
(334 333)
(335 334)
(336 335)
(337 336)
(338 337)
(339 338)
(340 339)
(341 340)
(322 341)
(342 323)
(343 342)
(344 343)
(345 344)
(346 345)
(347 346)
(348 347)
(349 348)
(350 349)
(351 350)
(352 351)
(353 352)
(354 353)
(355 354)
(356 355)
(357 356)
(358 357)
(359 358)
(360 359)
(361 360)
(362 361)
(363 362)
(364 363)
(365 364)
(366 365)
(367 366)
(368 367)
(369 368)
(370 369)
(371 370)
(372 371)
(373 372)
(374 373)
(375 374)
(376 375)
(377 376)
(378 377)
(379 378)
(380 379)
(381 380)
(382 381)
(383 382)
(384 383)
(385 384)
(386 385)
(387 386)
(388 387)
(326 388)
(325 389)
(389 390)
(390 391)
(391 392)
(392 393)
(393 394)
(394 395)
(395 396)
(396 397)
(397 398)
(398 399)
(399 400)
(400 401)
(401 402)
(402 403)
(403 404)
(404 405)
(405 406)
(406 407)
(407 408)
(408 409)
(409 410)
(410 411)
(411 412)
(412 413)
(413 414)
(414 415)
(415 416)
(416 417)
(417 418)
(418 419)
(419 420)
(420 421)
(421 422)
(422 423)
(423 424)
(424 425)
(425 426)
(426 427)
(427 428)
(428 429)
(429 430)
(430 431)
(431 432)
(432 433)
(433 434)
(434 435)
(435 436)
(436 437)
(437 438)
(438 439)
(439 440)
(440 441)
(441 442)
(442 443)
(443 444)
(444 445)
(445 446)
(446 447)
(447 448)
(448 449)
(449 450)
(450 451)
(451 452)
(452 453)
(453 454)
(454 455)
(455 456)
(456 457)
(457 458)
(458 459)
(459 460)
(460 461)
(461 462)
(462 463)
(463 464)
(464 465)
(465 466)
(466 467)
(467 468)
(468 469)
(469 470)
(470 471)
(471 472)
(472 473)
(473 474)
(474 475)
(475 476)
(476 477)
(477 478)
(478 479)
(479 480)
(480 481)
(481 482)
(482 483)
(483 484)
(484 485)
(485 327)
(8 13)
(15 9)
(17 10)
(11 19)
(13 32)
(32 33)
(33 34)
(34 35)
(35 36)
(36 37)
(37 38)
(38 39)
(39 40)
(40 41)
(41 42)
(42 43)
(43 44)
(44 45)
(45 46)
(46 47)
(47 48)
(48 49)
(49 50)
(50 51)
(51 52)
(52 53)
(53 54)
(54 55)
(55 56)
(56 57)
(57 58)
(58 59)
(59 60)
(60 61)
(61 62)
(62 17)
(63 15)
(64 63)
(65 64)
(66 65)
(67 66)
(68 67)
(69 68)
(70 69)
(71 70)
(72 71)
(73 72)
(74 73)
(75 74)
(76 75)
(77 76)
(78 77)
(79 78)
(80 79)
(81 80)
(82 81)
(83 82)
(84 83)
(85 84)
(86 85)
(87 86)
(88 87)
(89 88)
(90 89)
(91 90)
(92 91)
(93 92)
(19 93)
)

// concaveStart mixedStart nonFeatureStart
8 8 12
// internalStart flatStart openStart multipleStart
424 492 492 492
// normals

984
(
(0 0 1)
(0 -0 -1)
(0 0 1)
(0 -1 0)
(0 0 1)
(0 -0 -1)
(-0 0 1)
(0 1 0)
(0 0 1)
(0 0 -1)
(0 0 1)
(0 -1 0)
(0 0 1)
(0 0 -1)
(-0 0 1)
(0 1 0)
(0 0 1)
(0 -0 -1)
(0 0 1)
(0 -0 -1)
(0 0 1)
(0 -0 -1)
(0 0 1)
(0 -0 -1)
(0 0 1)
(0 -0 -1)
(0 0 1)
(0 -0 -1)
(0 0 1)
(0 -0 -1)
(0 0 1)
(0 0 -1)
(0 0 1)
(0 0 -1)
(0 0 1)
(0 0 -1)
(0 0 1)
(0 0 -1)
(0 0 1)
(0 0 -1)
(0 0 1)
(0 0 -1)
(0 0 1)
(0 0 -1)
(0 0 1)
(0 -1 0)
(0 0 1)
(0 -1 0)
(0 0 1)
(0 -1 0)
(0 0 1)
(0 -1 0)
(0 0 1)
(0 -1 0)
(0 0 1)
(0 -1 0)
(0 0 1)
(0 -1 0)
(0 0 1)
(0 -1 0)
(0 0 1)
(0 -1 0)
(0 0 1)
(0 -1 0)
(0 0 1)
(0 -1 0)
(0 0 1)
(0 -1 0)
(0 0 1)
(0 -1 0)
(0 0 1)
(0 -1 0)
(0 0 1)
(0 -1 0)
(0 0 1)
(0 -1 0)
(0 0 1)
(0 -1 0)
(0 0 1)
(0 -1 0)
(0 0 1)
(0 -1 0)
(0 0 1)
(0 -1 0)
(0 0 1)
(0 -1 0)
(0 0 1)
(0 -1 0)
(0 0 1)
(0 -1 0)
(0 0 1)
(0 -1 0)
(0 0 1)
(0 -1 0)
(0 0 1)
(0 -1 0)
(0 0 1)
(0 -1 0)
(0 0 1)
(0 -1 0)
(0 0 1)
(0 -1 0)
(0 0 1)
(0 -1 0)
(0 0 1)
(0 -1 0)
(0 0 1)
(0 -1 0)
(-0 0 1)
(0 1 0)
(-0 0 1)
(0 1 0)
(-0 0 1)
(0 1 0)
(-0 0 1)
(0 1 0)
(-0 0 1)
(0 1 0)
(-0 0 1)
(0 1 0)
(-0 0 1)
(0 1 0)
(-0 0 1)
(0 1 0)
(-0 0 1)
(0 1 0)
(-0 0 1)
(0 1 0)
(-0 0 1)
(0 1 0)
(-0 0 1)
(0 1 0)
(-0 0 1)
(0 1 0)
(-0 0 1)
(0 1 0)
(-0 0 1)
(0 1 0)
(-0 0 1)
(0 1 0)
(-0 0 1)
(0 1 0)
(-0 0 1)
(0 1 0)
(-0 0 1)
(0 1 0)
(-0 0 1)
(0 1 0)
(-0 0 1)
(0 1 0)
(-0 0 1)
(0 1 0)
(-0 0 1)
(0 1 0)
(-0 0 1)
(0 1 0)
(-0 0 1)
(0 1 0)
(-0 0 1)
(0 1 0)
(-0 0 1)
(0 1 0)
(-0 0 1)
(0 1 0)
(-0 0 1)
(0 1 0)
(-0 0 1)
(0 1 0)
(-0 0 1)
(0 1 0)
(-0 0 1)
(0 1 0)
(-1 0 0)
(0 -1 0)
(-1 0 0)
(0 0 -1)
(-1 0 0)
(0 -1 0)
(-1 0 0)
(0 0 1)
(-1 0 0)
(0 0 -1)
(-1 0 -0)
(0 1 0)
(-1 0 -0)
(0 1 0)
(-1 0 0)
(0 0 1)
(-1 0 0)
(0 -1 0)
(-1 0 0)
(0 -1 0)
(-1 0 0)
(0 -1 0)
(-1 0 0)
(0 -1 0)
(-1 0 0)
(0 -1 0)
(-1 0 0)
(0 -1 0)
(-1 0 0)
(0 -1 0)
(-1 0 0)
(0 0 -1)
(-1 0 0)
(0 0 -1)
(-1 0 0)
(0 0 -1)
(-1 0 0)
(0 0 -1)
(-1 0 0)
(0 0 -1)
(-1 0 0)
(0 0 -1)
(-1 0 0)
(0 0 -1)
(-1 0 -0)
(0 1 0)
(-1 0 -0)
(0 1 0)
(-1 0 -0)
(0 1 0)
(-1 0 -0)
(0 1 0)
(-1 0 -0)
(0 1 0)
(-1 0 -0)
(0 1 0)
(-1 0 -0)
(0 1 0)
(-1 0 0)
(0 0 1)
(-1 0 0)
(0 0 1)
(-1 0 0)
(0 0 1)
(-1 0 0)
(0 0 1)
(-1 0 0)
(0 0 1)
(-1 0 0)
(0 0 1)
(-1 0 0)
(0 0 1)
(1 0 0)
(0 -1 0)
(1 0 0)
(0 -0 -1)
(1 0 0)
(0 -1 0)
(1 -0 0)
(0 0 1)
(1 0 0)
(0 -0 -1)
(1 0 0)
(0 1 -0)
(1 0 0)
(0 1 -0)
(1 -0 0)
(0 0 1)
(1 0 0)
(0 -1 0)
(1 0 0)
(0 -1 0)
(1 0 0)
(0 -1 0)
(1 0 0)
(0 -1 0)
(1 0 0)
(0 -1 0)
(1 0 0)
(0 -1 0)
(1 0 0)
(0 -1 0)
(1 0 0)
(0 -0 -1)
(1 0 0)
(0 -0 -1)
(1 0 0)
(0 -0 -1)
(1 0 0)
(0 -0 -1)
(1 0 0)
(0 -0 -1)
(1 0 0)
(0 -0 -1)
(1 0 0)
(0 -0 -1)
(1 0 0)
(0 1 -0)
(1 0 0)
(0 1 -0)
(1 0 0)
(0 1 -0)
(1 0 0)
(0 1 -0)
(1 0 0)
(0 1 -0)
(1 0 0)
(0 1 -0)
(1 0 0)
(0 1 -0)
(1 -0 0)
(0 0 1)
(1 -0 0)
(0 0 1)
(1 -0 0)
(0 0 1)
(1 -0 0)
(0 0 1)
(1 -0 0)
(0 0 1)
(1 -0 0)
(0 0 1)
(1 -0 0)
(0 0 1)
(0 -1 0)
(0 0 -1)
(0 -1 0)
(0 0 -1)
(0 -1 0)
(0 0 -1)
(-0 -1 0)
(0 0 1)
(0 -1 0)
(0 0 -1)
(-0 -1 0)
(0 0 1)
(0 -1 0)
(0 0 -1)
(0 -1 0)
(0 0 -1)
(0 -1 0)
(0 0 -1)
(0 -1 0)
(0 0 -1)
(0 -1 0)
(0 0 -1)
(0 -1 0)
(0 0 -1)
(0 -1 0)
(0 0 -1)
(0 -1 0)
(0 0 -1)
(0 -1 0)
(0 0 -1)
(0 -1 0)
(0 0 -1)
(0 -1 0)
(0 0 -1)
(0 -1 0)
(0 0 -1)
(0 -1 0)
(0 0 -1)
(0 -1 0)
(0 0 -1)
(0 -1 0)
(0 0 -1)
(0 -1 0)
(0 0 -1)
(0 -1 0)
(0 0 -1)
(0 -1 0)
(0 0 -1)
(0 -1 0)
(0 0 -1)
(0 -1 0)
(0 0 -1)
(0 -1 0)
(0 0 -1)
(0 -1 0)
(0 0 -1)
(0 -1 0)
(0 0 -1)
(0 -1 0)
(0 0 -1)
(0 -1 0)
(0 0 -1)
(0 -1 0)
(0 0 -1)
(0 -1 0)
(0 0 -1)
(0 -1 0)
(0 0 -1)
(0 -1 0)
(0 0 -1)
(0 -1 0)
(0 0 -1)
(0 -1 0)
(0 0 -1)
(0 -1 0)
(0 0 -1)
(0 -1 0)
(0 0 -1)
(0 -1 0)
(0 0 -1)
(0 -1 0)
(0 0 -1)
(0 -1 0)
(0 0 -1)
(0 -1 0)
(0 0 -1)
(0 -1 0)
(0 0 -1)
(0 -1 0)
(0 0 -1)
(0 -1 0)
(0 0 -1)
(0 -1 0)
(0 0 -1)
(0 -1 0)
(0 0 -1)
(0 -1 0)
(0 0 -1)
(0 -1 0)
(0 0 -1)
(0 -1 0)
(0 0 -1)
(0 -1 0)
(0 0 -1)
(0 -1 0)
(0 0 -1)
(0 -1 0)
(0 0 -1)
(0 -1 0)
(0 0 -1)
(0 -1 0)
(0 0 -1)
(0 -1 0)
(0 0 -1)
(0 -1 0)
(0 0 -1)
(0 -1 0)
(0 0 -1)
(0 -1 0)
(0 0 -1)
(0 -1 0)
(0 0 -1)
(0 -1 0)
(0 0 -1)
(0 -1 0)
(0 0 -1)
(0 -1 0)
(0 0 -1)
(0 -1 0)
(0 0 -1)
(0 -1 0)
(0 0 -1)
(0 -1 0)
(0 0 -1)
(0 -1 0)
(0 0 -1)
(0 -1 0)
(0 0 -1)
(-0 -1 0)
(0 0 1)
(-0 -1 0)
(0 0 1)
(-0 -1 0)
(0 0 1)
(-0 -1 0)
(0 0 1)
(-0 -1 0)
(0 0 1)
(-0 -1 0)
(0 0 1)
(-0 -1 0)
(0 0 1)
(-0 -1 0)
(0 0 1)
(-0 -1 0)
(0 0 1)
(-0 -1 0)
(0 0 1)
(-0 -1 0)
(0 0 1)
(-0 -1 0)
(0 0 1)
(-0 -1 0)
(0 0 1)
(-0 -1 0)
(0 0 1)
(-0 -1 0)
(0 0 1)
(-0 -1 0)
(0 0 1)
(-0 -1 0)
(0 0 1)
(-0 -1 0)
(0 0 1)
(-0 -1 0)
(0 0 1)
(-0 -1 0)
(0 0 1)
(-0 -1 0)
(0 0 1)
(-0 -1 0)
(0 0 1)
(-0 -1 0)
(0 0 1)
(-0 -1 0)
(0 0 1)
(-0 -1 0)
(0 0 1)
(-0 -1 0)
(0 0 1)
(-0 -1 0)
(0 0 1)
(-0 -1 0)
(0 0 1)
(-0 -1 0)
(0 0 1)
(-0 -1 0)
(0 0 1)
(-0 -1 0)
(0 0 1)
(-0 -1 0)
(0 0 1)
(-0 -1 0)
(0 0 1)
(-0 -1 0)
(0 0 1)
(-0 -1 0)
(0 0 1)
(-0 -1 0)
(0 0 1)
(-0 -1 0)
(0 0 1)
(-0 -1 0)
(0 0 1)
(-0 -1 0)
(0 0 1)
(-0 -1 0)
(0 0 1)
(-0 -1 0)
(0 0 1)
(-0 -1 0)
(0 0 1)
(-0 -1 0)
(0 0 1)
(-0 -1 0)
(0 0 1)
(-0 -1 0)
(0 0 1)
(-0 -1 0)
(0 0 1)
(-0 -1 0)
(0 0 1)
(-0 -1 0)
(0 0 1)
(-0 -1 0)
(0 0 1)
(-0 -1 0)
(0 0 1)
(-0 -1 0)
(0 0 1)
(-0 -1 0)
(0 0 1)
(-0 -1 0)
(0 0 1)
(-0 -1 0)
(0 0 1)
(-0 -1 0)
(0 0 1)
(-0 -1 0)
(0 0 1)
(-0 -1 0)
(0 0 1)
(-0 -1 0)
(0 0 1)
(-0 -1 0)
(0 0 1)
(-0 -1 0)
(0 0 1)
(-0 -1 0)
(0 0 1)
(-0 -1 0)
(0 0 1)
(-0 -1 0)
(0 0 1)
(-0 -1 0)
(0 0 1)
(-0 -1 0)
(0 0 1)
(-0 -1 0)
(0 0 1)
(-0 -1 0)
(0 0 1)
(-0 -1 0)
(0 0 1)
(-0 -1 0)
(0 0 1)
(-0 -1 0)
(0 0 1)
(-0 -1 0)
(0 0 1)
(-0 -1 0)
(0 0 1)
(-0 -1 0)
(0 0 1)
(-0 -1 0)
(0 0 1)
(-0 -1 0)
(0 0 1)
(-0 -1 0)
(0 0 1)
(-0 -1 0)
(0 0 1)
(-0 -1 0)
(0 0 1)
(-0 -1 0)
(0 0 1)
(-0 -1 0)
(0 0 1)
(-0 -1 0)
(0 0 1)
(-0 -1 0)
(0 0 1)
(-0 -1 0)
(0 0 1)
(-0 -1 0)
(0 0 1)
(-0 -1 0)
(0 0 1)
(-0 -1 0)
(0 0 1)
(-0 -1 0)
(0 0 1)
(-0 -1 0)
(0 0 1)
(-0 -1 0)
(0 0 1)
(-0 -1 0)
(0 0 1)
(-0 -1 0)
(0 0 1)
(-0 -1 0)
(0 0 1)
(-0 -1 0)
(0 0 1)
(-0 -1 0)
(0 0 1)
(-0 -1 0)
(0 0 1)
(-0 -1 0)
(0 0 1)
(-0 -1 0)
(0 0 1)
(-0 -1 0)
(0 0 1)
(0 1 0)
(0 0 -1)
(0 1 0)
(0 0 -1)
(0 1 0)
(0 0 -1)
(0 1 0)
(-0 0 1)
(0 1 0)
(0 0 -1)
(0 1 0)
(-0 0 1)
(0 1 0)
(0 0 -1)
(0 1 0)
(0 0 -1)
(0 1 0)
(0 0 -1)
(0 1 0)
(0 0 -1)
(0 1 0)
(0 0 -1)
(0 1 0)
(0 0 -1)
(0 1 0)
(0 0 -1)
(0 1 0)
(0 0 -1)
(0 1 0)
(0 0 -1)
(0 1 0)
(0 0 -1)
(0 1 0)
(0 0 -1)
(0 1 0)
(0 0 -1)
(0 1 0)
(0 0 -1)
(0 1 0)
(0 0 -1)
(0 1 0)
(0 0 -1)
(0 1 0)
(0 0 -1)
(0 1 0)
(0 0 -1)
(0 1 0)
(0 0 -1)
(0 1 0)
(0 0 -1)
(0 1 0)
(0 0 -1)
(0 1 0)
(0 0 -1)
(0 1 0)
(0 0 -1)
(0 1 0)
(0 0 -1)
(0 1 0)
(0 0 -1)
(0 1 0)
(0 0 -1)
(0 1 0)
(0 0 -1)
(0 1 0)
(0 0 -1)
(0 1 0)
(0 0 -1)
(0 1 0)
(0 0 -1)
(0 1 0)
(0 0 -1)
(0 1 0)
(0 0 -1)
(0 1 0)
(0 0 -1)
(0 1 0)
(0 0 -1)
(0 1 0)
(0 0 -1)
(0 1 0)
(0 0 -1)
(0 1 0)
(0 0 -1)
(0 1 0)
(0 0 -1)
(0 1 0)
(0 0 -1)
(0 1 0)
(0 0 -1)
(0 1 0)
(0 0 -1)
(0 1 0)
(0 0 -1)
(0 1 0)
(0 0 -1)
(0 1 0)
(0 0 -1)
(0 1 0)
(0 0 -1)
(0 1 0)
(0 0 -1)
(0 1 0)
(0 0 -1)
(0 1 0)
(0 0 -1)
(0 1 0)
(0 0 -1)
(0 1 0)
(0 0 -1)
(0 1 0)
(0 0 -1)
(0 1 0)
(0 0 -1)
(0 1 0)
(0 0 -1)
(0 1 0)
(0 0 -1)
(0 1 0)
(0 0 -1)
(0 1 0)
(0 0 -1)
(0 1 0)
(0 0 -1)
(0 1 0)
(0 0 -1)
(0 1 0)
(0 0 -1)
(0 1 0)
(0 0 -1)
(0 1 0)
(0 0 -1)
(0 1 0)
(0 0 -1)
(0 1 0)
(0 0 -1)
(0 1 0)
(0 0 -1)
(0 1 0)
(-0 0 1)
(0 1 0)
(-0 0 1)
(0 1 0)
(-0 0 1)
(0 1 0)
(-0 0 1)
(0 1 0)
(-0 0 1)
(0 1 0)
(-0 0 1)
(0 1 0)
(-0 0 1)
(0 1 0)
(-0 0 1)
(0 1 0)
(-0 0 1)
(0 1 0)
(-0 0 1)
(0 1 0)
(-0 0 1)
(0 1 0)
(-0 0 1)
(0 1 0)
(-0 0 1)
(0 1 0)
(-0 0 1)
(0 1 0)
(-0 0 1)
(0 1 0)
(-0 0 1)
(0 1 0)
(-0 0 1)
(0 1 0)
(-0 0 1)
(0 1 0)
(-0 0 1)
(0 1 0)
(-0 0 1)
(0 1 0)
(-0 0 1)
(0 1 0)
(-0 0 1)
(0 1 0)
(-0 0 1)
(0 1 0)
(-0 0 1)
(0 1 0)
(-0 0 1)
(0 1 0)
(-0 0 1)
(0 1 0)
(-0 0 1)
(0 1 0)
(-0 0 1)
(0 1 0)
(-0 0 1)
(0 1 0)
(-0 0 1)
(0 1 0)
(-0 0 1)
(0 1 0)
(-0 0 1)
(0 1 0)
(-0 0 1)
(0 1 0)
(-0 0 1)
(0 1 0)
(-0 0 1)
(0 1 0)
(-0 0 1)
(0 1 0)
(-0 0 1)
(0 1 0)
(-0 0 1)
(0 1 0)
(-0 0 1)
(0 1 0)
(-0 0 1)
(0 1 0)
(-0 0 1)
(0 1 0)
(-0 0 1)
(0 1 0)
(-0 0 1)
(0 1 0)
(-0 0 1)
(0 1 0)
(-0 0 1)
(0 1 0)
(-0 0 1)
(0 1 0)
(-0 0 1)
(0 1 0)
(-0 0 1)
(0 1 0)
(-0 0 1)
(0 1 0)
(-0 0 1)
(0 1 0)
(-0 0 1)
(0 1 0)
(-0 0 1)
(0 1 0)
(-0 0 1)
(0 1 0)
(-0 0 1)
(0 1 0)
(-0 0 1)
(0 1 0)
(-0 0 1)
(0 1 0)
(-0 0 1)
(0 1 0)
(-0 0 1)
(0 1 0)
(-0 0 1)
(0 1 0)
(-0 0 1)
(0 1 0)
(-0 0 1)
(0 1 0)
(-0 0 1)
(0 1 0)
(-0 0 1)
(0 1 0)
(-0 0 1)
(0 1 0)
(-0 0 1)
(0 1 0)
(-0 0 1)
(0 1 0)
(-0 0 1)
(0 1 0)
(-0 0 1)
(0 1 0)
(-0 0 1)
(0 1 0)
(-0 0 1)
(0 1 0)
(-0 0 1)
(0 1 0)
(-0 0 1)
(0 1 0)
(-0 0 1)
(0 1 0)
(-0 0 1)
(0 1 0)
(-0 0 1)
(0 1 0)
(-0 0 1)
(0 1 0)
(-0 0 1)
(0 1 0)
(-0 0 1)
(0 1 0)
(-0 0 1)
(0 1 0)
(-0 0 1)
(0 1 0)
(-0 0 1)
(0 1 0)
(-0 0 1)
(0 1 0)
(-0 0 1)
(0 1 0)
(-0 0 1)
(0 1 0)
(-0 0 1)
(0 1 0)
(-0 0 1)
(0 1 0)
(-0 0 1)
(0 1 0)
(-0 0 1)
(0 1 0)
(-0 0 1)
(0 1 0)
(-0 0 1)
(0 1 0)
(-0 0 1)
(0 1 0)
(-0 0 1)
(0 1 0)
(-0 0 1)
(0 1 0)
(-0 0 1)
(0 1 0)
(-0 0 1)
(0 1 0)
(-0 0 1)
(0 1 0)
(-0 0 1)
(0 1 0)
(-0 0 1)
)

// normal volume types

984
(
0
0
0
0
0
0
0
0
0
0
0
0
0
0
0
0
0
0
0
0
0
0
0
0
0
0
0
0
0
0
0
0
0
0
0
0
0
0
0
0
0
0
0
0
0
0
0
0
0
0
0
0
0
0
0
0
0
0
0
0
0
0
0
0
0
0
0
0
0
0
0
0
0
0
0
0
0
0
0
0
0
0
0
0
0
0
0
0
0
0
0
0
0
0
0
0
0
0
0
0
0
0
0
0
0
0
0
0
0
0
0
0
0
0
0
0
0
0
0
0
0
0
0
0
0
0
0
0
0
0
0
0
0
0
0
0
0
0
0
0
0
0
0
0
0
0
0
0
0
0
0
0
0
0
0
0
0
0
0
0
0
0
0
0
0
0
0
0
0
0
0
0
0
0
0
0
0
0
0
0
0
0
0
0
0
0
0
0
0
0
0
0
0
0
0
0
0
0
0
0
0
0
0
0
0
0
0
0
0
0
0
0
0
0
0
0
0
0
0
0
0
0
0
0
0
0
0
0
0
0
0
0
0
0
0
0
0
0
0
0
0
0
0
0
0
0
0
0
0
0
0
0
0
0
0
0
0
0
0
0
0
0
0
0
0
0
0
0
0
0
0
0
0
0
0
0
0
0
0
0
0
0
0
0
0
0
0
0
0
0
0
0
0
0
0
0
0
0
0
0
0
0
0
0
0
0
0
0
0
0
0
0
0
0
0
0
0
0
0
0
0
0
0
0
0
0
0
0
0
0
0
0
0
0
0
0
0
0
0
0
0
0
0
0
0
0
0
0
0
0
0
0
0
0
0
0
0
0
0
0
0
0
0
0
0
0
0
0
0
0
0
0
0
0
0
0
0
0
0
0
0
0
0
0
0
0
0
0
0
0
0
0
0
0
0
0
0
0
0
0
0
0
0
0
0
0
0
0
0
0
0
0
0
0
0
0
0
0
0
0
0
0
0
0
0
0
0
0
0
0
0
0
0
0
0
0
0
0
0
0
0
0
0
0
0
0
0
0
0
0
0
0
0
0
0
0
0
0
0
0
0
0
0
0
0
0
0
0
0
0
0
0
0
0
0
0
0
0
0
0
0
0
0
0
0
0
0
0
0
0
0
0
0
0
0
0
0
0
0
0
0
0
0
0
0
0
0
0
0
0
0
0
0
0
0
0
0
0
0
0
0
0
0
0
0
0
0
0
0
0
0
0
0
0
0
0
0
0
0
0
0
0
0
0
0
0
0
0
0
0
0
0
0
0
0
0
0
0
0
0
0
0
0
0
0
0
0
0
0
0
0
0
0
0
0
0
0
0
0
0
0
0
0
0
0
0
0
0
0
0
0
0
0
0
0
0
0
0
0
0
0
0
0
0
0
0
0
0
0
0
0
0
0
0
0
0
0
0
0
0
0
0
0
0
0
0
0
0
0
0
0
0
0
0
0
0
0
0
0
0
0
0
0
0
0
0
0
0
0
0
0
0
0
0
0
0
0
0
0
0
0
0
0
0
0
0
0
0
0
0
0
0
0
0
0
0
0
0
0
0
0
0
0
0
0
0
0
0
0
0
0
0
0
0
0
0
0
0
0
0
0
0
0
0
0
0
0
0
0
0
0
0
0
0
0
0
0
0
0
0
0
0
0
0
0
0
0
0
0
0
0
0
0
0
0
0
0
0
0
0
0
0
0
0
0
0
0
0
0
0
0
0
0
0
0
0
0
0
0
0
0
0
0
0
0
0
0
0
0
0
0
0
0
0
0
0
0
0
0
0
0
0
0
0
0
0
0
0
0
0
0
0
0
0
0
0
0
0
0
0
0
0
0
0
0
0
0
0
0
0
0
0
0
0
0
0
0
0
0
0
0
0
0
0
0
0
0
0
0
0
0
0
0
0
0
0
0
0
0
0
0
0
0
0
0
0
0
0
0
0
0
0
0
0
0
0
0
0
0
0
0
0
0
0
0
0
0
0
0
0
0
0
0
0
0
0
0
0
0
0
0
0
0
0
0
0
0
0
0
0
0
0
0
0
0
0
0
0
0
0
0
0
0
0
0
0
0
0
0
0
0
0
0
0
0
0
0
0
0
0
0
0
0
0
0
0
0
0
0
0
0
0
0
0
0
0
0
0
0
0
0
0
0
0
0
0
0
0
0
0
0
0
0
0
0
0
0
0
0
0
0
0
0
0
0
0
0
0
0
0
0
0
0
0
0
0
0
0
0
0
0
0
0
0
)

// normalDirections

492
(
2{1}
2{1}
2{1}
2{1}
2{1}
2{1}
2{1}
2{1}
2{1}
2{1}
2{1}
2{1}
2{1}
2{1}
2{1}
2{1}
2{1}
2{1}
2(1 -1)
2(1 -1)
2(1 -1)
2(1 -1)
2(1 -1)
2(1 -1)
2(1 -1)
2(1 -1)
2(1 -1)
2(1 -1)
2(1 -1)
2(1 -1)
2(1 -1)
2(1 -1)
2(1 -1)
2(1 -1)
2(1 -1)
2(1 -1)
2(1 -1)
2(1 -1)
2(1 -1)
2(1 -1)
2(1 -1)
2(1 -1)
2(1 -1)
2(1 -1)
2(1 -1)
2(1 -1)
2(1 -1)
2(1 -1)
2(1 -1)
2(1 -1)
2(1 -1)
2(1 -1)
2(1 -1)
2(1 -1)
2(1 -1)
2(1 -1)
2(1 -1)
2(1 -1)
2(1 -1)
2(1 -1)
2(1 -1)
2(1 -1)
2(1 -1)
2(1 -1)
2(1 -1)
2(1 -1)
2(1 -1)
2(1 -1)
2(1 -1)
2(1 -1)
2(1 -1)
2(1 -1)
2(1 -1)
2(1 -1)
2(1 -1)
2(1 -1)
2(1 -1)
2(1 -1)
2(1 -1)
2(1 -1)
2(1 -1)
2(1 -1)
2(1 -1)
2(1 -1)
2(1 -1)
2(1 -1)
2(1 -1)
2(1 -1)
2(1 -1)
2(1 -1)
2(1 -1)
2(1 -1)
2(1 -1)
2(1 -1)
2(1 -1)
2(1 -1)
2(1 -1)
2(1 -1)
2(1 -1)
2(1 -1)
2(1 -1)
2(1 -1)
2(1 -1)
2(1 -1)
2(1 -1)
2(1 -1)
2(1 -1)
2(1 -1)
2(1 -1)
2(1 -1)
2(1 -1)
2(1 -1)
2(1 -1)
2(1 -1)
2(1 -1)
2(1 -1)
2(1 -1)
2(1 -1)
2(1 -1)
2(1 -1)
2(1 -1)
2(1 -1)
2(1 -1)
2(1 -1)
2(1 -1)
2(1 -1)
2(1 -1)
2(1 -1)
2(1 -1)
2(1 -1)
2(1 -1)
2(1 -1)
2(1 -1)
2(1 -1)
2(1 -1)
2(1 -1)
2(1 -1)
2(1 -1)
2(1 -1)
2(1 -1)
2(1 -1)
2(1 -1)
2(1 -1)
2(1 -1)
2(1 -1)
2(1 -1)
2(1 -1)
2(1 -1)
2(1 -1)
2(1 -1)
2(1 -1)
2(1 -1)
2(1 -1)
2(1 -1)
2(1 -1)
2(1 -1)
2(1 -1)
2(1 -1)
2(1 -1)
2(1 -1)
2(1 -1)
2(1 -1)
2(1 -1)
2(1 -1)
2(1 -1)
2(1 -1)
2(1 -1)
2(1 -1)
2(1 -1)
2(1 -1)
2(1 -1)
2(1 -1)
2(1 -1)
2(1 -1)
2(1 -1)
2(1 -1)
2(1 -1)
2(1 -1)
2(1 -1)
2(1 -1)
2(1 -1)
2(1 -1)
2(1 -1)
2(1 -1)
2(1 -1)
2(1 -1)
2(1 -1)
2(1 -1)
2(1 -1)
2(1 -1)
2(1 -1)
2(1 -1)
2(1 -1)
2(1 -1)
2(1 -1)
2(1 -1)
2(1 -1)
2(1 -1)
2(1 -1)
2(1 -1)
2(1 -1)
2(1 -1)
2(1 -1)
2(1 -1)
2(1 -1)
2(1 -1)
2(1 -1)
2(1 -1)
2(1 -1)
2(1 -1)
2(1 -1)
2(1 -1)
2(1 -1)
2(1 -1)
2(1 -1)
2(1 -1)
2(1 -1)
2(1 -1)
2(1 -1)
2(1 -1)
2(1 -1)
2(1 -1)
2(1 -1)
2(1 -1)
2(1 -1)
2(1 -1)
2(1 -1)
2(1 -1)
2(1 -1)
2(1 -1)
2(1 -1)
2(1 -1)
2(1 -1)
2(1 -1)
2(1 -1)
2(1 -1)
2(1 -1)
2(1 -1)
2(1 -1)
2(1 -1)
2(1 -1)
2(1 -1)
2(1 -1)
2(1 -1)
2(1 -1)
2(1 -1)
2(1 -1)
2(1 -1)
2(1 -1)
2(1 -1)
2(1 -1)
2(1 -1)
2(1 -1)
2(1 -1)
2(1 -1)
2(1 -1)
2(1 -1)
2(1 -1)
2(1 -1)
2(1 -1)
2(1 -1)
2(1 -1)
2(1 -1)
2(1 -1)
2(1 -1)
2(1 -1)
2(1 -1)
2(1 -1)
2(1 -1)
2(1 -1)
2(1 -1)
2(1 -1)
2(1 -1)
2(1 -1)
2(1 -1)
2(1 -1)
2(1 -1)
2(1 -1)
2(1 -1)
2(1 -1)
2(1 -1)
2(1 -1)
2(1 -1)
2(1 -1)
2(1 -1)
2(1 -1)
2(1 -1)
2(1 -1)
2(1 -1)
2(1 -1)
2(1 -1)
2(1 -1)
2(1 -1)
2(1 -1)
2(1 -1)
2(1 -1)
2(1 -1)
2(1 -1)
2(1 -1)
2(1 -1)
2(1 -1)
2(1 -1)
2(1 -1)
2(1 -1)
2(1 -1)
2(1 -1)
2(1 -1)
2(1 -1)
2(1 -1)
2(1 -1)
2(1 -1)
2(1 -1)
2(1 -1)
2(1 -1)
2(1 -1)
2(1 -1)
2(1 -1)
2(1 -1)
2(1 -1)
2(1 -1)
2(1 -1)
2(1 -1)
2(1 -1)
2(1 -1)
2(1 -1)
2(1 -1)
2(1 -1)
2(1 -1)
2(1 -1)
2(1 -1)
2(1 -1)
2(1 -1)
2(1 -1)
2(1 -1)
2(1 -1)
2(1 -1)
2(1 -1)
2(1 -1)
2(1 -1)
2(1 -1)
2(1 -1)
2(1 -1)
2(1 -1)
2(1 -1)
2(1 -1)
2(1 -1)
2(1 -1)
2(1 -1)
2(1 -1)
2(1 -1)
2(1 -1)
2(1 -1)
2(1 -1)
2(1 -1)
2(1 -1)
2(1 -1)
2(1 -1)
2(1 -1)
2(1 -1)
2(1 -1)
2(1 -1)
2(1 -1)
2(1 -1)
2(1 -1)
2(1 -1)
2(1 -1)
2(1 -1)
2(1 -1)
2(1 -1)
2(1 -1)
2(1 -1)
2(1 -1)
2(1 -1)
2(1 -1)
2(1 -1)
2(1 -1)
2(1 -1)
2(1 -1)
2(1 -1)
2(1 -1)
2(1 -1)
2(1 -1)
2(1 -1)
2(1 -1)
2(1 -1)
2(1 -1)
2(1 -1)
2(1 -1)
2(1 -1)
2(1 -1)
2(1 -1)
2(1 -1)
2(1 -1)
2(1 -1)
2(1 -1)
2(1 -1)
2(1 -1)
2(1 -1)
2(1 -1)
2(1 -1)
2(1 -1)
2(1 -1)
2(1 -1)
2(1 -1)
2(1 -1)
2(1 -1)
2(1 -1)
2(1 -1)
2(1 -1)
2(1 -1)
2(1 -1)
2(1 -1)
2(1 -1)
2(1 -1)
2(1 -1)
2(1 -1)
2(1 -1)
2(1 -1)
2(1 -1)
2(1 -1)
2(1 -1)
2(1 -1)
2(1 -1)
2(1 -1)
2{1}
2{1}
2{1}
2{1}
2{1}
2{1}
2{1}
2{1}
2{1}
2{1}
2{1}
2{1}
2{1}
2{1}
2{1}
2{1}
2{1}
2{1}
2{1}
2{1}
2{1}
2{1}
2{1}
2{1}
2{1}
2{1}
2{1}
2{1}
2{1}
2{1}
2{1}
2{1}
2{1}
2{1}
2{1}
2{1}
2{1}
2{1}
2{1}
2{1}
2{1}
2{1}
2{1}
2{1}
2{1}
2{1}
2{1}
2{1}
2{1}
2{1}
2{1}
2{1}
2{1}
2{1}
2{1}
2{1}
2{1}
2{1}
2{1}
2{1}
2{1}
2{1}
2{1}
2{1}
2{1}
2{1}
2{1}
2{1}
)

// edgeNormals

492
(
2(0 1)
2(4 5)
2(8 9)
2(12 13)
2(16 17)
2(18 19)
2(20 21)
2(22 23)
2(24 25)
2(26 27)
2(28 29)
2(30 31)
2(32 33)
2(34 35)
2(36 37)
2(38 39)
2(40 41)
2(42 43)
2(172 173)
2(174 175)
2(176 177)
2(178 179)
2(180 181)
2(182 183)
2(184 185)
2(186 187)
2(188 189)
2(190 191)
2(192 193)
2(194 195)
2(196 197)
2(198 199)
2(200 201)
2(202 203)
2(204 205)
2(206 207)
2(208 209)
2(210 211)
2(212 213)
2(214 215)
2(216 217)
2(218 219)
2(220 221)
2(222 223)
2(224 225)
2(226 227)
2(228 229)
2(230 231)
2(232 233)
2(234 235)
2(236 237)
2(238 239)
2(240 241)
2(242 243)
2(244 245)
2(246 247)
2(248 249)
2(250 251)
2(252 253)
2(254 255)
2(256 257)
2(258 259)
2(260 261)
2(262 263)
2(264 265)
2(266 267)
2(268 269)
2(270 271)
2(272 273)
2(274 275)
2(276 277)
2(278 279)
2(280 281)
2(282 283)
2(284 285)
2(286 287)
2(288 289)
2(290 291)
2(292 293)
2(294 295)
2(296 297)
2(298 299)
2(300 301)
2(302 303)
2(304 305)
2(306 307)
2(308 309)
2(310 311)
2(312 313)
2(314 315)
2(316 317)
2(318 319)
2(320 321)
2(322 323)
2(324 325)
2(326 327)
2(328 329)
2(330 331)
2(332 333)
2(334 335)
2(336 337)
2(338 339)
2(340 341)
2(342 343)
2(344 345)
2(346 347)
2(348 349)
2(350 351)
2(352 353)
2(354 355)
2(356 357)
2(358 359)
2(360 361)
2(362 363)
2(364 365)
2(366 367)
2(368 369)
2(370 371)
2(372 373)
2(374 375)
2(376 377)
2(378 379)
2(380 381)
2(382 383)
2(384 385)
2(386 387)
2(388 389)
2(390 391)
2(392 393)
2(394 395)
2(396 397)
2(398 399)
2(400 401)
2(402 403)
2(404 405)
2(406 407)
2(408 409)
2(410 411)
2(412 413)
2(414 415)
2(416 417)
2(418 419)
2(420 421)
2(422 423)
2(424 425)
2(426 427)
2(428 429)
2(430 431)
2(432 433)
2(434 435)
2(436 437)
2(438 439)
2(440 441)
2(442 443)
2(444 445)
2(446 447)
2(448 449)
2(450 451)
2(452 453)
2(454 455)
2(456 457)
2(458 459)
2(460 461)
2(462 463)
2(464 465)
2(466 467)
2(468 469)
2(470 471)
2(472 473)
2(474 475)
2(476 477)
2(478 479)
2(480 481)
2(482 483)
2(484 485)
2(486 487)
2(488 489)
2(490 491)
2(492 493)
2(494 495)
2(496 497)
2(498 499)
2(500 501)
2(502 503)
2(504 505)
2(506 507)
2(508 509)
2(510 511)
2(512 513)
2(514 515)
2(516 517)
2(518 519)
2(520 521)
2(522 523)
2(524 525)
2(526 527)
2(528 529)
2(530 531)
2(532 533)
2(534 535)
2(536 537)
2(538 539)
2(540 541)
2(542 543)
2(544 545)
2(546 547)
2(548 549)
2(550 551)
2(552 553)
2(554 555)
2(556 557)
2(558 559)
2(560 561)
2(562 563)
2(564 565)
2(566 567)
2(568 569)
2(570 571)
2(572 573)
2(574 575)
2(576 577)
2(578 579)
2(580 581)
2(582 583)
2(584 585)
2(586 587)
2(588 589)
2(590 591)
2(592 593)
2(594 595)
2(596 597)
2(598 599)
2(600 601)
2(602 603)
2(604 605)
2(606 607)
2(608 609)
2(610 611)
2(612 613)
2(614 615)
2(616 617)
2(618 619)
2(620 621)
2(622 623)
2(624 625)
2(626 627)
2(628 629)
2(630 631)
2(632 633)
2(634 635)
2(636 637)
2(638 639)
2(640 641)
2(642 643)
2(644 645)
2(646 647)
2(648 649)
2(650 651)
2(652 653)
2(654 655)
2(656 657)
2(658 659)
2(660 661)
2(662 663)
2(664 665)
2(666 667)
2(668 669)
2(670 671)
2(672 673)
2(674 675)
2(676 677)
2(678 679)
2(680 681)
2(682 683)
2(684 685)
2(686 687)
2(688 689)
2(690 691)
2(692 693)
2(694 695)
2(696 697)
2(698 699)
2(700 701)
2(702 703)
2(704 705)
2(706 707)
2(708 709)
2(710 711)
2(712 713)
2(714 715)
2(716 717)
2(718 719)